2
Lattice="3.0 0.0 0.0 0.0 3.0 0.0 0.0 0.0 3.0" Properties=species:S:1:pos:R:3:momenta:R:3 pbc="F F F"
C        0.00000000       0.00000000       0.00000000      29.81650569      -8.29965947      38.87911964
C        1.50000000       1.50000000       1.50000000      91.42366511     -14.05564023     -14.05465471
2
Lattice="3.0 0.0 0.0 0.0 3.0 0.0 0.0 0.0 3.0" Properties=species:S:1:pos:R:3:momenta:R:3 pbc="F F F"
C        0.04877351      -0.01356992       0.06359647      29.82318844      -8.29282462      38.88576622
C        1.50000000       1.50000000       1.50000000       0.00000000       0.00000000       0.00000000
2
Lattice="3.0 0.0 0.0 0.0 3.0 0.0 0.0 0.0 3.0" Properties=species:S:1:pos:R:3:momenta:R:3 pbc="F F F"
C        0.09755860      -0.02712776       0.12720440      29.83069730      -8.28481086      38.89315503
C        1.50000000       1.50000000       1.50000000       0.00000000       0.00000000       0.00000000
2
Lattice="3.0 0.0 0.0 0.0 3.0 0.0 0.0 0.0 3.0" Properties=species:S:1:pos:R:3:momenta:R:3 pbc="F F F"
C        0.14635667      -0.04067147       0.19082504      29.83908372      -8.27546118      38.90131244
C        1.50000000       1.50000000       1.50000000       0.00000000       0.00000000       0.00000000
2
Lattice="3.0 0.0 0.0 0.0 3.0 0.0 0.0 0.0 3.0" Properties=species:S:1:pos:R:3:momenta:R:3 pbc="F F F"
C        0.19516919      -0.05419872       0.25445966      29.84838222      -8.26461956      38.91024403
C        1.50000000       1.50000000       1.50000000       0.00000000       0.00000000       0.00000000
2
Lattice="3.0 0.0 0.0 0.0 3.0 0.0 0.0 0.0 3.0" Properties=species:S:1:pos:R:3:momenta:R:3 pbc="F F F"
C        0.24399768      -0.06770696       0.31810951      29.85860195      -8.25214205      38.91992695
C        1.50000000       1.50000000       1.50000000       0.00000000       0.00000000       0.00000000
2
Lattice="3.0 0.0 0.0 0.0 3.0 0.0 0.0 0.0 3.0" Properties=species:S:1:pos:R:3:momenta:R:3 pbc="F F F"
C        0.29284363      -0.08119340       0.38177580      29.86971699      -8.23791234      38.93030143
C        1.50000000       1.50000000       1.50000000       0.00000000       0.00000000       0.00000000
2
Lattice="3.0 0.0 0.0 0.0 3.0 0.0 0.0 0.0 3.0" Properties=species:S:1:pos:R:3:momenta:R:3 pbc="F F F"
C        0.34170848      -0.09465509       0.44545960      29.88165561      -8.22186236      38.94126252
C        1.50000000       1.50000000       1.50000000       0.00000000       0.00000000       0.00000000
2
Lattice="3.0 0.0 0.0 0.0 3.0 0.0 0.0 0.0 3.0" Properties=species:S:1:pos:R:3:momenta:R:3 pbc="F F F"
C        0.39059349      -0.10808903       0.50916175      29.89428965      -8.20399777      38.95265293
C        1.50000000       1.50000000       1.50000000       0.00000000       0.00000000       0.00000000
2
Lattice="3.0 0.0 0.0 0.0 3.0 0.0 0.0 0.0 3.0" Properties=species:S:1:pos:R:3:momenta:R:3 pbc="F F F"
C        0.43949967      -0.12149228       0.57288280      29.90742550      -8.18442756      38.96425893
C        1.50000000       1.50000000       1.50000000       0.00000000       0.00000000       0.00000000
